Circuit: * Z:\home\zhonx\Bureau\UHER\1200_MIC\Simulation_1200_MIC_Original\1200_MIC.asc

WARNING: Node NC_01 is floating.
WARNING: Node NC_02 is floating.
WARNING: Node OUT2 is floating.

WARNING: Less than two connections to node NC_01.  This node is used by C3.
WARNING: Less than two connections to node IN1.  This node is used by V3.
WARNING: Less than two connections to node NC_02.  This node is used by C15.
WARNING: Less than two connections to node OUT2.  This node is used by C25.
WARNING: Less than two connections to node MIC2.  This node is used by V5.
Direct Newton iteration for .op point succeeded.

Date: Thu Nov 21 23:34:47 2019
Total elapsed time: 0.122 seconds.

tnom = 27
temp = 27
method = modified trap
totiter = 2171
traniter = 2162
tranpoints = 1082
accept = 1053
rejected = 29
matrix size = 79
fillins = 64
solver = Normal
Thread vector: 18.5/9.0[2] 6.3/4.8[2] 3.3/3.1[1] 2.5/2.7[1]  2592/500
Matrix Compiler1: 8.62 KB object code size  3.5/3.3/[2.8]
Matrix Compiler2: off  [2.2]/3.2/4.5

