Circuit: * Z:\home\zhonx\Bureau\UHER\1200_MIC\Simulation_1200_MIC_Original\1200_MIC_modif.asc

WARNING: Node NC_01 is floating.
WARNING: Node OUT2 is floating.

WARNING: Less than two connections to node MIC1.  This node is used by V2.
WARNING: Less than two connections to node NC_01.  This node is used by C15.
WARNING: Less than two connections to node OUT2.  This node is used by C25.
WARNING: Less than two connections to node MIC2.  This node is used by V5.
Direct Newton iteration for .op point succeeded.

Date: Tue Nov 19 01:41:13 2019
Total elapsed time: 2.646 seconds.

tnom = 27
temp = 27
method = modified trap
totiter = 168037
traniter = 168028
tranpoints = 82015
accept = 52017
rejected = 29998
matrix size = 78
fillins = 58
solver = Normal
Thread vector: 13.5/7.5[2] 11.0/5.1[2] 4.1/3.2[2] 2.2/5.0[1]  2592/500
Matrix Compiler1: 8.22 KB object code size  4.5/6.2/[3.2]
Matrix Compiler2: 7.47 KB object code size  2.6/7.8/[2.0]

